data/case9_ps.m
function ps = case9_ps

ps.casename = 'case9';
ps.baseMVA = 100.000000;

ps.bus = [...
%ID type Pd Qd Gs Bs area Vmag Vang basekV zone Vmax Vmin lam_P lam_Q mu_Vx mu_Vn locX locY delta_sys 
 1 3 0 0 0 0 1 1.04 0 16.5 1 1.1 0.9 0 0 0 0 0 0 0;
 2 2 0 0 0 0 1 1.025 0 16.5 1 1.1 0.9 0 0 0 0 0 0 0;
 3 2 0 0 0 0 1 1.025 0 16.5 1 1.1 0.9 0 0 0 0 0 0 0;
 4 1 0 0 0 0 1 1 0 230 1 1.1 0.9 0 0 0 0 0 0 0;
 5 1 0 0 0 0 1 1 0 230 1 1.1 0.9 0 0 0 0 0 0 0;
 6 1 0 0 0 0 1 1 0 230 1 1.1 0.9 0 0 0 0 0 0 0;
 7 1 0 0 0 0 1 1 0 230 1 1.1 0.9 0 0 0 0 0 0 0;
 8 1 0 0 0 0 1 1 0 230 1 1.1 0.9 0 0 0 0 0 0 0;
 9 1 0 0 0 0 1 1 0 230 1 1.1 0.9 0 0 0 0 0 0 0;
];

ps.branch = [...
%from to R X B rateA rateB rateC tap shift status Pf Qf Pt Qt mu_f mu_t Imag_f Imag_t switchable prob_fail type id 
 4 1 0 0.0576 0 250 250 250 1 0 1 0 0 0 0 0 0 0 0 0 0 0 1;
 2 7 0 0.0625 0 250 250 250 1 0 1 0 0 0 0 0 0 0 0 0 0 0 2;
 3 9 0 0.0586 0 300 300 300 1 0 1 0 0 0 0 0 0 0 0 0 0 0 3;
 4 6 0.017 0.092 0.158 250 250 250 1 0 1 0 0 0 0 0 0 0 0 0 0 0 4;
 4 5 0.01 0.085 0.176 250 250 250 1 0 1 0 0 0 0 0 0 0 0 0 0 0 5;
 5 7 0.032 0.161 0.306 250 250 250 1 0 1 0 0 0 0 0 0 0 0 0 0 0 6;
 6 9 0.039 0.17 0.358 150 150 150 1 0 1 0 0 0 0 0 0 0 0 0 0 0 7;
 7 8 0.0085 0.072 0.149 250 250 250 1 0 1 0 0 0 0 0 0 0 0 0 0 0 8;
 8 9 0.0119 0.1008 0.209 150 150 150 1 0 1 0 0 0 0 0 0 0 0 0 0 0 9;
];

ps.gen = [...
%bus Pg Qg Qmax Qmin Vsp mBase status Pmax Pmin mu_Px mu_Pn mu_Qx mu_Qn type cost part_fact RRU RRD id 
 1 71.6 10 300 -300 1.04 100 1 247.5 10 0 0 0 0 3 5 1 0 0 1;
 2 163 10 300 -300 1.025 100 1 192 10 0 0 0 0 2 1.2 0 0 0 2;
 3 85 10 300 -300 1.025 100 1 128 10 0 0 0 0 2 1 0 0 0 3;
];

ps.mac = [...
%bus r Xd Xdp Xdpp Xq Xqp Xqpp D M Ea Eap Pm delta_m omega Td0 Td0p 
 1 0 0.146 0.0608 0 0.0969 0.0969 0 23.64 47.28 1.2 0 0 0 0 0 8.96;
 2 0 0.8958 0.1198 0 0.8645 0.1969 0 6.4 12.8 1.2 0 0 0 0 0 6;
 3 0 1.3125 0.1813 0 1.2578 0.25 0 3.01 6.02 1.2 0 0 0 0 0 5.89;
];

ps.shunt = [...
%bus P Q frac_S frac_Z status type value frac_E lambda near_gen id
 5 125 50 1 0 1 1 1000 0 0.08 0 1;
 6 90 30 1 0 1 1 1000 0 0.08 0 2;
 8 100 35 1 0 1 1 1000 0 0.08 0 3;
];

ps.exc = [...
%gen type Ka Ta Tb Ke Te Urmax Urmin Vref Efd E1 
 1 1 0 1 10 100 0.1 5 -5;
 2 1 0 1 10 100 0.1 5 -5;
 3 1 0 1 10 100 0.1 5 -5;
];

ps.gov = [...
%gen type R Tt LCmax LCmin Pmax Pmin Pref Ti P3
 1 1 0.05 2 100 -100 2.475 0 0 4 0;
 2 1 0.05 2 100 -100 1.92 0 0 4 0;
 3 1 0.05 2 100 -100 1.28 0 0 4 0;
];

ps.areas = [...
 1 5;
];

ps.gencost = [...
 2 1500 0 3 0.11 5 150;
 2 2000 0 3 0.085 1.2 600;
 2 3000 0 3 0.1225 1 335;
];

